Power-World/0_25lf.aux
Bus (Number,Name,AreaName,NomkV,Vpu,kV,Vangle,LoadMW,LoadMvar,GenMW,GenMvar,ShuntMvar,
   ActG,ActB,AreaNumber,ZoneNumber)
{
     1 "1"            "1"   230.00  1.00000  230.000     0.00   400.00   194.00   279.44    69.76 ""     0.00     0.00        1        1
     2 "2"            "1"    22.00  1.00000   22.000    32.17 "" ""   300.00   -49.58 ""     0.00     0.00        1        1
     3 "3"            "1"    22.00  1.00000   22.000    32.17 "" ""   300.00   -49.58 ""     0.00     0.00        1        1
     4 "4"            "1"   345.00  1.01237  349.269    28.60 "" "" "" "" ""     0.00     0.00        1        1
     5 "5"            "1"   230.00  0.96727  222.471    -2.44   350.00     1.70 "" ""     0.00     0.00     0.00        1        1
     6 "6"            "1"   230.00  0.97466  224.173     3.86   100.00    48.00 "" "" ""     0.00     0.00        1        1
     7 "7"            "1"   230.00  0.98886  227.438    -4.27   250.00   121.00 "" ""     0.00     0.00     0.00        1        1
     8 "8"            "1"   230.00  1.00000  230.000     3.01   150.00    72.60   600.00   172.44 ""     0.00     0.00        1        1
     9 "9"            "1"   230.00  0.96807  222.657    -1.30   200.00    97.00 "" ""     0.00     0.00     0.00        1        1
    10 "10"           "1"   345.00  1.01854  351.396     6.47 "" "" "" ""     0.00     0.00     0.00        1        1
    11 "11"           "1"   345.00  1.00600  347.068    30.29 "" "" "" "" ""     0.00     0.00        1        1
    12 "12"           "1"   345.00  1.00600  347.069    30.29 "" "" "" "" ""     0.00     0.00        1        1
}
